<?xml version="1.0" encoding="UTF-8"?>

<routes xmlns:xsi="http://www.w3.org/2001/XMLSchema-instance" xsi:noNamespaceSchemaLocation="http://sumo.dlr.de/xsd/routes_file.xsd">
    <vType id="ego" vClass="passenger" length="5.00" maxSpeed="15" color="10,191,255" tau="1.0"  minGap="1.0" accel="5" decel="5"/>
    <vType id="HDV_0" vClass="passenger" length="5.00" maxSpeed="13.00" color="112,100,78" tau="1.2"  minGap="2.0" accel="2.0" decel="4" carFollowModel="IDM" laneChangeModel="SL2015" lcOpposite="10" lcCooperative="0.1" lcSpeedGain="0.5" lcStrategic="100" lcKeepRight="100"/>
    <vType id="HDV_1" vClass="taxi" length="4.00" maxSpeed="13" color="112,100,78" tau="0.8"  minGap="1.0" accel="3.5" decel="5" carFollowModel="EIDM" laneChangeModel="SL2015" lcOpposite="1000" lcCooperative="0.1" lcSpeedGain="1.0" lcStrategic="1000000" lcKeepRight="1000000"/>
    <vType id="HDV_2" vClass="taxi" length="4.00" maxSpeed="15" color="112,100,78" tau="1.0"  minGap="1.5" accel="2.5" decel="4.5" carFollowModel="EIDM" laneChangeModel="LC2013" lcOpposite="100" lcCooperative="0.1" lcSpeedGain="0.9" lcStrategic="1000" lcKeepRight="1000"/>

    <route id="route_0" edges="E0 E1 E2 E3" />
</routes>