<?xml version="1.0" encoding="UTF-8"?>

<routes xmlns:xsi="http://www.w3.org/2001/XMLSchema-instance" xsi:noNamespaceSchemaLocation="http://sumo.dlr.de/xsd/routes_file.xsd">
    <vType id="ego" vClass="passenger" length="5.00" maxSpeed="15" color="10,191,255" tau="1.0"  minGap="1.0" accel="5" decel="5"/>
    <!-- aggressive HDVs -->
    <vType id="HDV_0" vClass="taxi" length="5.00" maxSpeed="15.00" color="112,100,78" tau="0.9"  minGap="1.0" accel="3.5" decel="5.5" carFollowModel="IDM" laneChangeModel="LC2013" lcCooperative="0.0" lcSpeedGain="100" lcStrategic="100"/>
    <!-- cautious HDVs -->
    <vType id="HDV_1" vClass="taxi" length="5.00" maxSpeed="15.00" color="112,100,78" tau="1.2"  minGap="2.0" accel="1.5" decel="2.5" carFollowModel="IDM" laneChangeModel="LC2013" lcCooperative="-1.0" lcSpeedGain="0.0" lcStrategic="-1.0"/>
    <!-- normal HDVs - default parameters-->
<!--    <vType id="HDV_2" vClass="passenger" length="5.00" maxSpeed="15" color="112,100,78" tau="1.0"  minGap="1.5" accel="2.5" decel="4.5" carFollowModel="IDM" laneChangeModel="LC2013" lcOpposite="1.0" lcCooperative="1.0" lcSpeedGain="1.0" lcStrategic="1.0" lcKeepRight="1.0"/>-->
    <!--normal HDVs with lane-changing-->
    <vType id="HDV_2" vClass="taxi" length="5.00" maxSpeed="15.00" color="112,100,78" tau="1.0"  minGap="1.5" accel="2.5" decel="4.5" carFollowModel="IDM" laneChangeModel="LC2013" lcCooperative="0.5" lcSpeedGain="1.0" lcStrategic="0.5"/>

    <route id="route_0" edges="E0 E1 E2 E3" />
</routes>